 Abaqus/Standard 3DEXPERIENCE R2017x                  DATE 03-Nov-2020 TIME 11:19:01
 SUMMARY OF JOB INFORMATION:
 STEP  INC ATT SEVERE EQUIL TOTAL  TOTAL      STEP       INC OF       DOF    IF
               DISCON ITERS ITERS  TIME/    TIME/LPF    TIME/LPF    MONITOR RIKS
               ITERS               FREQ
   1     1   1     0     0     0  0.000      1.00e-036  1.000e-036
                          
 THE ANALYSIS HAS COMPLETED SUCCESSFULLY
